bshe/Case_123bus/Ref_code/case123_DG2.m
function mpc = case123_DG2
%CASE33d    Power system data for 123 bus radial distribution systm.
%% MATPOWER Case Format : Version 2
mpc.version = '2';
%%-----  Power Flow Data  -----%%
%% system MVA base
mpc.baseMVA = 10;
%% bus data
%	bus_i	type	Pd	Qd	Gs	Bs	area	Vm	Va	baseKV	zone	Vmax	Vmin
mpc.bus = [
                1	3	0	0	0	0	1	1	0	4.16	1	1.05	0.95
                2	1	0.04	0.02	0	0	1	1	0	4.16	1	1.05	0.95
                3	1	0.02	0.01	0	0	1	1	0	4.16	1	1.05	0.95
                4	1	0	0	0	0	1	1	0	4.16	1	1.05	0.95
                5	1	0.04	0.02	0	0	1	1	0	4.16	1	1.05	0.95
                6	1	0.02	0.01	0	0	1	1	0	4.16	1	1.05	0.95
                7	1	0.04	0.02	0	0	1	1	0	4.16	1	1.05	0.95
                8	1	0.02	0.01	0	0	1	1	0	4.16	1	1.05	0.95
                9	1	0	0	0	0	1	1	0	4.16	1	1.05	0.95
                10	1	0.04	0.02	0	0	1	1	0	4.16	1	1.05	0.95
                11	1	0.02	0.01	0	0	1	1	0	4.16	1	1.05	0.95
                12	1	0.04	0.02	0	0	1	1	0	4.16	1	1.05	0.95
                13	1	0.02	0.01	0	0	1	1	0	4.16	1	1.05	0.95
                14	1	0	0	0	0	1	1	0	4.16	1	1.05	0.95
                15	1	0	0	0	0	1	1	0	4.16	1	1.05	0.95
                16	1	0	0	0	0	1	1	0	4.16	1	1.05	0.95
                17	1	0.04	0.02	0	0	1	1	0	4.16	1	1.05	0.95
                18	1	0.02	0.01	0	0	1	1	0	4.16	1	1.05	0.95
                19	1	0	0	0	0	1	1	0	4.16	1	1.05	0.95
                20	1	0.04	0.02	0	0	1	1	0	4.16	1	1.05	0.95
                21	1	0.04	0.02	0	0	1	1	0	4.16	1	1.05	0.95
                22	1	0	0	0	0	1	1	0	4.16	1	1.05	0.95
                23	1	0.04	0.02	0	0	1	1	0	4.16	1	1.05	0.95
                24	1	0	0	0	0	1	1	0	4.16	1	1.05	0.95
                25	1	0.04	0.02	0	0	1	1	0	4.16	1	1.05	0.95
                26	1	0	0	0	0	1	1	0	4.16	1	1.05	0.95
                27	1	0	0	0	0	1	1	0	4.16	1	1.05	0.95
                28	1	0	0	0	0	1	1	0	4.16	1	1.05	0.95
                29	1	0.04	0.02	0	0	1	1	0	4.16	1	1.05	0.95
                30	1	0.04	0.02	0	0	1	1	0	4.16	1	1.05	0.95
                31	1	0.04	0.02	0	0	1	1	0	4.16	1	1.05	0.95
                32	1	0.02	0.01	0	0	1	1	0	4.16	1	1.05	0.95
                33	1	0.02	0.01	0	0	1	1	0	4.16	1	1.05	0.95
                34	1	0.04	0.02	0	0	1	1	0	4.16	1	1.05	0.95
                35	1	0.04	0.02	0	0	1	1	0	4.16	1	1.05	0.95
                36	1	0.04	0.02	0	0	1	1	0	4.16	1	1.05	0.95
                37	1	0	0	0	0	1	1	0	4.16	1	1.05	0.95
                38	1	0.04	0.02	0	0	1	1	0	4.16	1	1.05	0.95
                39	1	0.02	0.01	0	0	1	1	0	4.16	1	1.05	0.95
                40	1	0.02	0.01	0	0	1	1	0	4.16	1	1.05	0.95
                41	1	0	0	0	0	1	1	0	4.16	1	1.05	0.95
                42	1	0.02	0.01	0	0	1	1	0	4.16	1	1.05	0.95
                43	1	0.02	0.01	0	0	1	1	0	4.16	1	1.05	0.95
                44	1	0.04	0.02	0	0	1	1	0	4.16	1	1.05	0.95
                45	1	0	0	0	0	1	1	0	4.16	1	1.05	0.95
                46	1	0.02	0.01	0	0	1	1	0	4.16	1	1.05	0.95
                47	1	0.02	0.01	0	0	1	1	0	4.16	1	1.05	0.95
                48	1	0.105	0.075	0	0	1	1	0	4.16	1	1.05	0.95
                49	1	0.21	0.15	0	0	1	1	0	4.16	1	1.05	0.95
                50	1	0.14	0.095	0	0	1	1	0	4.16	1	1.05	0.95
                51	1	0.04	0.02	0	0	1	1	0	4.16	1	1.05	0.95
                52	1	0.02	0.01	0	0	1	1	0	4.16	1	1.05	0.95
                53	1	0.04	0.02	0	0	1	1	0	4.16	1	1.05	0.95
                54	1	0.04	0.02	0	0	1	1	0	4.16	1	1.05	0.95
                55	1	0	0	0	0	1	1	0	4.16	1	1.05	0.95
                56	1	0.02	0.01	0	0	1	1	0	4.16	1	1.05	0.95
                57	1	0.02	0.01	0	0	1	1	0	4.16	1	1.05	0.95
                58	1	0	0	0	0	1	1	0	4.16	1	1.05	0.95
                59	1	0.02	0.01	0	0	1	1	0	4.16	1	1.05	0.95
                60	1	0.02	0.01	0	0	1	1	0	4.16	1	1.05	0.95
                61	1	0.02	0.01	0	0	1	1	0	4.16	1	1.05	0.95
                62	1	0.02	0.01	0	0	1	1	0	4.16	1	1.05	0.95
                63	1	0.04	0.02	0	0	1	1	0	4.16	1	1.05	0.95
                64	1	0.04	0.02	0	0	1	1	0	4.16	1	1.05	0.95
                65	1	0.075	0.035	0	0	1	1	0	4.16	1	1.05	0.95
                66	1	0.14	0.1	0	0	1	1	0	4.16	1	1.05	0.95
                67	1	0.075	0.035	0	0	1	1	0	4.16	1	1.05	0.95
                68	1	0	0	0	0	1	1	0	4.16	1	1.05	0.95
                69	1	0.02	0.01	0	0	1	1	0	4.16	1	1.05	0.95
                70	1	0.04	0.02	0	0	1	1	0	4.16	1	1.05	0.95
                71	1	0.02	0.01	0	0	1	1	0	4.16	1	1.05	0.95
                72	1	0.04	0.02	0	0	1	1	0	4.16	1	1.05	0.95
                73	1	0	0	0	0	1	1	0	4.16	1	1.05	0.95
                74	1	0.04	0.02	0	0	1	1	0	4.16	1	1.05	0.95
                75	1	0.04	0.02	0	0	1	1	0	4.16	1	1.05	0.95
                76	1	0.04	0.02	0	0	1	1	0	4.16	1	1.05	0.95
                77	1	0.245	0.18	0	0	1	1	0	4.16	1	1.05	0.95
                78	1	0.06	0.03	0	0	1	1	0	4.16	1	1.05	0.95
                79	1	0	0	0	0	1	1	0	4.16	1	1.05	0.95
                80	1	0.04	0.02	0	0	1	1	0	4.16	1	1.05	0.95
                81	1	0.04	0.02	0	0	1	1	0	4.16	1	1.05	0.95
                82	1	0	0	0	0	1	1	0	4.16	1	1.05	0.95
                83	1	0.04	0.02	0	0	1	1	0	4.16	1	1.05	0.95
                84	1	0.02	0.01	0	0	1	1	0	4.16	1	1.05	0.95
                85	1	0.02	0.01	0	0	1	1	0	4.16	1	1.05	0.95
                86	1	0.04	0.02	0	0	1	1	0	4.16	1	1.05	0.95
                87	1	0.02	0.01	0	0	1	1	0	4.16	1	1.05	0.95
                88	1	0.04	0.02	0	0	1	1	0	4.16	1	1.05	0.95
                89	1	0.04	0.02	0	0	1	1	0	4.16	1	1.05	0.95
                90	1	0	0	0	0	1	1	0	4.16	1	1.05	0.95
                91	1	0.04	0.02	0	0	1	1	0	4.16	1	1.05	0.95
                92	1	0	0	0	0	1	1	0	4.16	1	1.05	0.95
                93	1	0.04	0.02	0	0	1	1	0	4.16	1	1.05	0.95
                94	1	0	0	0	0	1	1	0	4.16	1	1.05	0.95
                95	1	0.04	0.02	0	0	1	1	0	4.16	1	1.05	0.95
                96	1	0.02	0.01	0	0	1	1	0	4.16	1	1.05	0.95
                97	1	0.02	0.01	0	0	1	1	0	4.16	1	1.05	0.95
                98	1	0	0	0	0	1	1	0	4.16	1	1.05	0.95
                99	1	0.04	0.02	0	0	1	1	0	4.16	1	1.05	0.95
                100	1	0.04	0.02	0	0	1	1	0	4.16	1	1.05	0.95
                101	1	0.04	0.02	0	0	1	1	0	4.16	1	1.05	0.95
                102	1	0	0	0	0	1	1	0	4.16	1	1.05	0.95
                103	1	0.02	0.01	0	0	1	1	0	4.16	1	1.05	0.95
                104	1	0.04	0.02	0	0	1	1	0	4.16	1	1.05	0.95
                105	1	0.04	0.02	0	0	1	1	0	4.16	1	1.05	0.95
                106	1	0	0	0	0	1	1	0	4.16	1	1.05	0.95
                107	1	0.04	0.02	0	0	1	1	0	4.16	1	1.05	0.95
                108	1	0.04	0.02	0	0	1	1	0	4.16	1	1.05	0.95
                109	1	0	0	0	0	1	1	0	4.16	1	1.05	0.95
                110	1	0.04	0.02	0	0	1	1	0	4.16	1	1.05	0.95
                111	1	0	0	0	0	1	1	0	4.16	1	1.05	0.95
                112	1	0.02	0.01	0	0	1	1	0	4.16	1	1.05	0.95
                113	1	0.02	0.01	0	0	1	1	0	4.16	1	1.05	0.95
                114	1	0.04	0.02	0	0	1	1	0	4.16	1	1.05	0.95
                115	1	0.02	0.01	0	0	1	1	0	4.16	1	1.05	0.95
                116	1	0	0	0	0	1	1	0	4.16	1	1.05	0.95
                117	1	0	0	0	0	1	1	0	4.16	1	1.05	0.95
            ];


%% generator data
%	bus	Pg	Qg	Qmax	Qmin	Vg	mBase	status	Pmax	Pmin	Pc1	Pc2	Qc1min	Qc1max	Qc2min	Qc2max	ramp_agc	ramp_10	ramp_30	ramp_q	apf
mpc.gen = [
	1	50	0	50	-50	  1	100	1	50	0	0	0	0	0	0	0	0	0	0	0	0;
   18	0.2	0.1	0.1	-0.1      1	100	1	0.2	0	0	0	0	0	0	0	0	0	0	0	0;
   22	0.2	0.1	0.1	-0.1      1	100	1	0.2	0	0	0	0	0	0	0	0	0	0	0	0;
   25	0.2	0.1	0.1	-0.1      1	100	1	0.2	0	0	0	0	0	0	0	0	0	0	0	0;
   33	0.2	0.1	0.1	-0.1      1	100	1	0.2	0	0	0	0	0	0	0	0	0	0	0	0;
];

% mpc.gen(2:8,[4:5,9:10]) = 0;
%% branch data
%	fbus	tbus	r	x	b	rateA	rateB	rateC	ratio	angle	status	angmin	angmax
mpc.branch = [
1	2	0.013398477	0.027449222	0	130	130	130	0	0	1	-360	360
2	3	0.025457034	0.025807518	0	130	130	130	0	0	1	-360	360
2	4	0.036367191	0.036867883	0	130	130	130	0	0	1	-360	360
4	5	0.029093753	0.029494306	0	130	130	130	0	0	1	-360	360
4	6	0.047277348	0.047928248	0	130	130	130	0	0	1	-360	360
6	7	0.036367191	0.036867883	0	130	130	130	0	0	1	-360	360
2	8	0.010048858	0.020586916	0	130	130	130	0	0	1	-360	360
8	9	0.006699239	0.013724611	0	130	130	130	0	0	1	-360	360
9	10	0.032730472	0.033181095	0	130	130	130	0	0	1	-360	360
10	11	0.061824225	0.062675401	0	130	130	130	0	0	1	-360	360
11	12	0.036367191	0.036867883	0	130	130	130	0	0	1	-360	360
9	13	0.032730472	0.033181095	0	130	130	130	0	0	1	-360	360
9	14	0.010048858	0.020586916	0	130	130	130	0	0	1	-360	360
14	15	0.021820315	0.02212073	0	130	130	130	0	0	1	-360	360
15	16	0.014546876	0.014747153	0	130	130	130	0	0	1	-360	360
16	17	0.054550787	0.055301824	0	130	130	130	0	0	1	-360	360
16	18	0.050914067	0.051615036	0	130	130	130	0	0	1	-360	360
14	19	0.027634359	0.05661402	0	130	130	130	0	0	1	-360	360
19	20	0.036367191	0.036867883	0	130	130	130	0	0	1	-360	360
20	21	0.047277348	0.047928248	0	130	130	130	0	0	1	-360	360
19	22	0.010048858	0.020586916	0	130	130	130	0	0	1	-360	360
22	23	0.076371101	0.077422554	0	130	130	130	0	0	1	-360	360
22	24	0.008374048	0.017155764	0	130	130	130	0	0	1	-360	360
24	25	0.08000782	0.081109342	0	130	130	130	0	0	1	-360	360
24	26	0.009211453	0.01887134	0	130	130	130	0	0	1	-360	360
26	27	0.011723029	0.026301643	0	130	130	130	0	0	1	-360	360
27	28	0.009210951	0.020665577	0	130	130	130	0	0	1	-360	360
26	29	0.006699239	0.013724611	0	130	130	130	0	0	1	-360	360
29	30	0.010048858	0.020586916	0	130	130	130	0	0	1	-360	360
30	31	0.011723668	0.024018069	0	130	130	130	0	0	1	-360	360
27	32	0.032730472	0.033181095	0	130	130	130	0	0	1	-360	360
32	33	0.043640629	0.044241459	0	130	130	130	0	0	1	-360	360
28	34	0.072734382	0.073735766	0	130	130	130	0	0	1	-360	360
11	35	0.036367191	0.036867883	0	130	130	130	0	0	1	-360	360
19	36	0.012561072	0.025733645	0	130	130	130	0	0	1	-360	360
36	37	0.02177134	0.048845909	0	130	130	130	0	0	1	-360	360
37	38	0.043640629	0.044241459	0	130	130	130	0	0	1	-360	360
37	39	0.036367191	0.036867883	0	130	130	130	0	0	1	-360	360
39	40	0.047277348	0.047928248	0	130	130	130	0	0	1	-360	360
36	41	0.008374048	0.017155764	0	130	130	130	0	0	1	-360	360
41	42	0.047277348	0.047928248	0	130	130	130	0	0	1	-360	360
41	43	0.008374048	0.017155764	0	130	130	130	0	0	1	-360	360
43	44	0.072734382	0.073735766	0	130	130	130	0	0	1	-360	360
43	45	0.006699239	0.013724611	0	130	130	130	0	0	1	-360	360
45	46	0.029093753	0.029494306	0	130	130	130	0	0	1	-360	360
46	47	0.043640629	0.044241459	0	130	130	130	0	0	1	-360	360
45	48	0.008374048	0.017155764	0	130	130	130	0	0	1	-360	360
48	49	0.005024429	0.010293458	0	130	130	130	0	0	1	-360	360
48	50	0.008374048	0.017155764	0	130	130	130	0	0	1	-360	360
50	51	0.008374048	0.017155764	0	130	130	130	0	0	1	-360	360
51	52	0.008374048	0.017155764	0	130	130	130	0	0	1	-360	360
14	53	0.013398477	0.027449222	0	130	130	130	0	0	1	-360	360
53	54	0.006699239	0.013724611	0	130	130	130	0	0	1	-360	360
54	55	0.004187024	0.008577882	0	130	130	130	0	0	1	-360	360
55	56	0.009211453	0.01887134	0	130	130	130	0	0	1	-360	360
56	57	0.009211453	0.01887134	0	130	130	130	0	0	1	-360	360
55	58	0.011723668	0.024018069	0	130	130	130	0	0	1	-360	360
58	59	0.036367191	0.036867883	0	130	130	130	0	0	1	-360	360
59	60	0.036367191	0.036867883	0	130	130	130	0	0	1	-360	360
58	61	0.025122145	0.051467291	0	130	130	130	0	0	1	-360	360
61	62	0.027749637	0.013221365	0	130	130	130	0	0	1	-360	360
61	63	0.027749637	0.013221365	0	130	130	130	0	0	1	-360	360
63	64	0.019424746	0.009254956	0	130	130	130	0	0	1	-360	360
64	65	0.038849492	0.018509912	0	130	130	130	0	0	1	-360	360
65	66	0.047174383	0.022476321	0	130	130	130	0	0	1	-360	360
66	67	0.036074528	0.017187775	0	130	130	130	0	0	1	-360	360
61	68	0.011723668	0.024018069	0	130	130	130	0	0	1	-360	360
68	69	0.029093753	0.029494306	0	130	130	130	0	0	1	-360	360
69	70	0.04000391	0.040554671	0	130	130	130	0	0	1	-360	360
70	71	0.047277348	0.047928248	0	130	130	130	0	0	1	-360	360
71	72	0.04000391	0.040554671	0	130	130	130	0	0	1	-360	360
68	73	0.009211453	0.01887134	0	130	130	130	0	0	1	-360	360
73	74	0.04000391	0.040554671	0	130	130	130	0	0	1	-360	360
74	75	0.050914067	0.051615036	0	130	130	130	0	0	1	-360	360
75	76	0.058187506	0.058988613	0	130	130	130	0	0	1	-360	360
73	77	0.006699239	0.013724611	0	130	130	130	0	0	1	-360	360
77	78	0.013398477	0.027449222	0	130	130	130	0	0	1	-360	360
78	79	0.003349619	0.006862305	0	130	130	130	0	0	1	-360	360
79	80	0.007536643	0.015440187	0	130	130	130	0	0	1	-360	360
79	81	0.015910692	0.032595951	0	130	130	130	0	0	1	-360	360
81	82	0.015910692	0.032595951	0	130	130	130	0	0	1	-360	360
82	83	0.008374048	0.017155764	0	130	130	130	0	0	1	-360	360
83	84	0.008374048	0.017155764	0	130	130	130	0	0	1	-360	360
82	85	0.098191416	0.099543284	0	130	130	130	0	0	1	-360	360
85	86	0.069097663	0.070048977	0	130	130	130	0	0	1	-360	360
77	87	0.023447335	0.048036138	0	130	130	130	0	0	1	-360	360
87	88	0.015073287	0.030880375	0	130	130	130	0	0	1	-360	360
88	89	0.025457034	0.025807518	0	130	130	130	0	0	1	-360	360
88	90	0.009211453	0.01887134	0	130	130	130	0	0	1	-360	360
90	91	0.032730472	0.033181095	0	130	130	130	0	0	1	-360	360
90	92	0.007536643	0.015440187	0	130	130	130	0	0	1	-360	360
92	93	0.043640629	0.044241459	0	130	130	130	0	0	1	-360	360
92	94	0.007536643	0.015440187	0	130	130	130	0	0	1	-360	360
94	95	0.04000391	0.040554671	0	130	130	130	0	0	1	-360	360
94	96	0.010048858	0.020586916	0	130	130	130	0	0	1	-360	360
96	97	0.029093753	0.029494306	0	130	130	130	0	0	1	-360	360
68	98	0.008374048	0.017155764	0	130	130	130	0	0	1	-360	360
98	99	0.009211453	0.01887134	0	130	130	130	0	0	1	-360	360
99	100	0.018422906	0.03774268	0	130	130	130	0	0	1	-360	360
100	101	0.010048858	0.020586916	0	130	130	130	0	0	1	-360	360
98	102	0.008374048	0.017155764	0	130	130	130	0	0	1	-360	360
102	103	0.032730472	0.033181095	0	130	130	130	0	0	1	-360	360
103	104	0.047277348	0.047928248	0	130	130	130	0	0	1	-360	360
104	105	0.101828135	0.103230072	0	130	130	130	0	0	1	-360	360
102	106	0.009211453	0.01887134	0	130	130	130	0	0	1	-360	360
106	107	0.032730472	0.033181095	0	130	130	130	0	0	1	-360	360
107	108	0.083644539	0.084796131	0	130	130	130	0	0	1	-360	360
106	109	0.010886263	0.022302493	0	130	130	130	0	0	1	-360	360
109	110	0.065460944	0.066362189	0	130	130	130	0	0	1	-360	360
110	111	0.043640629	0.044241459	0	130	130	130	0	0	1	-360	360
111	112	0.083644539	0.084796131	0	130	130	130	0	0	1	-360	360
111	113	0.018183596	0.018433941	0	130	130	130	0	0	1	-360	360
113	114	0.076371101	0.077422554	0	130	130	130	0	0	1	-360	360
114	115	0.047277348	0.047928248	0	130	130	130	0	0	1	-360	360
52	116	0.016748096	0.034311527	0	130	130	130	0	0	1	-360	360
109	117	0.033496193	0.068623054	0	130	130	130	0	0	1	-360	360
                ];

%% generator cost data
%	1	startup	shutdown	n	x1	y1	...	xn	yn
%	2	startup	shutdown	n	c(n-1)	...	c0
mpc.gencost = [
	2	0	0	3	0.00	30	0;
%     2	0	0	3	0.00	31	0;
%     2	0	0	3	0.00	31	0;
%     2	0	0	3	0.00	31	0;
%     2	0	0	3	0.00	31	0;
%     2	0	0	3	0.00	31	0;
%     2	0	0	3	0.00	31	0;
%     2	0	0	3	0.00	31	0;   
    2	0	0	3	0.00	3	0;
%     2	0	0	3	0.00	4	0;
%     2	0	0	3	0.00	4	0;
%     2	0	0	3	0.00	4	0;
%     2	0	0	3	0.00	4	0;
%     2	0	0	3	0.00	4	0;
%     2	0	0	3	0.00	4	0;
%     2	0	0	3	0.00	4	0;
];

% ng = size(mpc.gen,1);
% mpc.gencost = zeros(ng * 2,8);
% mpc.gencost(1,:) = [1,0,0,2,0,0,4,30 * 4];
% mpc.gencost(2:4,:) = repmat([2,0,0,4,0,240,26.7,0.38],3,1);
% mpc.gencost(5:8,:) = repmat([2,0,0,4,0,510,39.7,0.4],4,1);
% mpc.gencost(9,:) = [1,0,0,2,0,0,4, 3 * 4];
% mpc.gencost(10:12,:) = repmat([2,0,0,4,0,240/100,26.7/10,0.38],3,1);
% mpc.gencost(13:16,:) = repmat([2,0,0,4,0,510/100,39.7/10,0.4],4,1);